/*--------------------------------*- C++ -*----------------------------------*\
  =========                 |
  \\      /  F ield         | OpenFOAM: The Open Source CFD Toolbox
   \\    /   O peration     | Website:  https://openfoam.org
    \\  /    A nd           | Version:  8
     \\/     M anipulation  |
\*---------------------------------------------------------------------------*/
FoamFile
{
    version     2.0;
    format      ascii;
    class       volScalarField;
    location    "0";
    object      nut;
}
// * * * * * * * * * * * * * * * * * * * * * * * * * * * * * * * * * * * * * //
dimensions      [0 2 -1 0 0 0 0];

internalField   uniform 0;

boundaryField
{
    #includeEtc "caseDicts/setConstraintTypes"
    #include "include/ABLConditions"

    inlet
    {
        type            calculated;
        value           uniform 0;
    }

    outlet
    {
        type            calculated;
        value           uniform 0;
    }

    top
    {
        type            calculated;
        value           uniform 0;
    }

    buildings
    {
        type            nutkWallFunction;
        value           uniform 0;
    }

    ground
    {
        type            nutkz0WallFunction;
        z0              $z0;
        value           uniform 0;
    }

    terrain
    {
        type            nutkz0WallFunction;
        z0              $z0;
        value           uniform 0;
    }

    #include "include/sideAndTopPatches"
}


// ************************************************************************* //
